/n/holylfs05/LABS/jacob_lab/jeast/GCClassic/src/GEOS-Chem/run/GCClassic/runScriptSamples